5
Lattice="5.00000000       0.00000000       0.00000000       0.00000000       10.00000000       0.00000000       0.00000000       0.00000000       5.00000000" Properties=species:S:1:pos:R:3:col_val:R:1:rad_val:R:1:magmoms:R:1 energy=5.0
Si 0.0 1.0 0.0     0.0 0.0 2.0
Si 0.0 1.0 2.5     0.0 0.0 2.0
C  0.0 1.0 5.0     0.2 0.6 -1.0
C  0.0 1.0 6.0     1.5 1.2 -1.0
Fe 2.5 0.0 0.0     0.0 0.0 0.5
6
Lattice="5.00000000       0.00000000       0.00000000       0.00000000       10.00000000       0.00000000       0.00000000       0.00000000       5.00000000" Properties=species:S:1:pos:R:3:col_val:R:1:rad_val:R:1 _vtk_commands="volume example.iso -iso 0.5  0 0 1   0.5"
Si 0.2 0.0 1.0     0.0 0.0
Si -0.2 2.5 1.0     0.0 0.0
C  0.2 5.0 1.0     0.5 0.6
C  -0.2 6.5 1.0     2.0 1.2
Fe 2.3 0.0 0.0     0.0 0.0
C  1.5 1.5 0.0     0.0 0.8
